 &time_control
 run_days                =
 run_hours               =
 run_minutes             =
 run_seconds             =
 start_year              =
 start_month             =
 start_day               =
 start_hour              =
 start_minute            =
 start_second            =
 end_year                =
 end_month               =
 end_day                 =
 end_hour                =
 end_minute              =
 end_second              =
 interval_seconds        =
 input_from_file         =
 fine_input_stream       =
 history_interval        =
 history_interval_d      =
 history_interval_h      =
 history_interval_m      =
 history_interval_s      =
 frames_per_outfile      =
 restart                 =
 restart_interval        =
 override_restart_timers =
 write_hist_at_0h_rst    =
 output_ready_flag       =
 force_use_old_data      =
 reset_simulation_start  =
 auxinput1_inname        =
 auxinput4_inname        =
 auxinput4_interval      =
 io_form_auxinput4       =
 io_form_history         =
 io_form_restart         =
 io_form_input           =
 io_form_boundary        =
 ncd_nofill              =
 io_form_auxinput2       =
 diag_print              =
 debug_level             =
 auxhist2_outname        =
 auxhist2_interval       =
 io_form_auxhist2        =
 frames_per_auxhist2     =
 auxinput11_interval     =
 auxinput11_end_h        =
 nocolons                =
 write_input             =
 inputout_interval       =
 input_outname           =
 inputout_begin_y        =
 inputout_begin_d        =
 inputout_begin_h        =
 inputout_begin_m        =
 inputout_begin_s        =
 inputout_end_y          =
 inputout_end_d          =
 inputout_end_h          =
 inputout_end_m          =
 inputout_end_s          =
 all_ic_times            =
 adjust_output_times     =
 output_ready_flag       =
 output_diagnostics      =
 nwp_diagnostics         =
 input_from_hires        =
 iofields_filename       =
 ignore_iofields_warning =
 /

 &domains
 time_step               =
 time_step_fract_num     =
 time_step_fract_den     =
 time_step_dfi           =
 max_dom                 =
 s_we                    =
 e_we                    =
 s_sn                    =
 e_sn                    =
 s_vert                  =
 e_vert                  =
 dx                      =
 dy                      =
 ztop                    =
 grid_id                 =
 parent_id               =
 i_parent_start          =
 j_parent_start          =
 parent_grid_ratio       =
 parent_time_step_ratio  =
 feedback                =
 smooth_option           =
 hypsometric_opt         =
 max_ts_locs             =
 max_ts_level            =
 wif_input_opt           =
 num_wif_levels          =
 num_metgrid_levels      =
 num_metgrid_soil_levels =
 eta_levels              =
 auto_levels_opt         =
 max_dz                  =
 dzbot                   =
 dzstretch_s             =
 dzstretch_u             =
 ideal_init_method       =
 interp_method_type      =
 force_sfc_in_vinterp    =
 maxw_horiz_pres_diff    =
 trop_horiz_pres_diff    =
 maxw_above_this_level   =
 use_maxw_level          =
 use_trop_level          =
 interp_theta            =
 p_top_requested         =
 interp_type             =
 extrap_type             =
 t_extrap_type           =
 use_levels_below_ground =
 use_surface             =
 lagrange_order          =
 zap_close_levels        =
 lowest_lev_from_sfc     =
 sfcp_to_sfcp            =
 use_tavg_for_tsk        =
 rh2qv_wrt_liquid        =
 rh2qv_method            =
 smooth_cg_topo          =
 vert_refine_fact        =
 vert_refine_method      =
 num_moves               =
 move_id                 =
 move_interval           =
 move_cd_x               =
 move_cd_y               =
 vortex_interval         =
 max_vortex_speed        =
 corral_dist             =
 track_level             =
 time_to_move            =
 use_adaptive_time_step  =
 step_to_output_time     =
 target_cfl              =
 target_hcfl             =
 max_step_increase_pct   =
 starting_time_step      =
 starting_time_step_den  =
 max_time_step           =
 max_time_step_den       =
 min_time_step           =
 min_time_step_den       =
 adaptation_domain       =
 tile_sz_x               =
 tile_sz_y               =
 numtiles                =
 nproc_x                 =
 nproc_y                 =
 ocean_levels            =
 ocean_z                 =
 ocean_t                 =
 ocean_s                 =
 /

 &physics
 chem_opt                 =
 mp_physics               =
 do_radar_ref             =
 mp_zero_out              =
 mp_zero_out_thresh       =
 mp_tend_lim              =
 gsfcgce_hail             =
 gsfcgce_2ice             =
 ccn_conc                 =
 hail_opt                 =
 morr_rimed_ice           =
 clean_atm_diag           =
 nssl_alphah              =
 nssl_alphahl             =
 nssl_cnoh                =
 nssl_cnohl               =
 nssl_cnor                =
 nssl_cnos                =
 nssl_rho_qh              =
 nssl_rho_ghl             =
 nssl_rho_qs              =
 no_mp_heating            =
 use_mp_re                =
 ra_lw_physics            =
 ra_sw_physics            =
 radt                     =
 ra_call_offset           =
 co2tf                    =
 cam_abs_freq_s           =
 levsiz                   =
 paerlev                  =
 cam_abs_dim1             =
 cam_abs_dim2             =
 o3input                  =
 aer_opt                  =
 alevsiz                  =
 no_src_types             =
 aer_aod550_val           =
 aer_angexp_opt           =
 aer_angexp_val           =
 aer_ssa_opt              =
 aer_ssa_val              =
 aer_asy_opt              =
 aer_asy_val              =
 aer_type                 =
 sf_sfclay_physics        =
 iz0tlnd                  =
 sf_surface_physics       =
 sf_urban_physics         =
 ua_phys                  =
 num_soil_layers          =
 bl_pbl_physics           =
 mfshconv                 =
 bldt                     =
 topo_wind                =
 bl_mynn_tkebudget        =
 bl_mynn_tkeadvect        =
 icloud_bl                =
 bl_mynn_cloudmix         =
 bl_mynn_mixlength        =
 bl_mynn_cloudpdf         =
 bl_mynn_edmf             =
 bl_mynn_edmf_mom         =
 bl_mynn_edmf_tke         =
 scalar_pblmix            =
 tracer_pblmix            =
 shinhong_tke_diag        =
 opt_thcnd                =
 sf_surface_mosaic        =
 mosaic_lu                =
 mosaic_soil              =
 mosaic_cat               =
 grav_settling            =
 ysu_topdown_pblmix       =
 cu_physics               =
 cudt                     =
 kfeta_trigger            =
 ishallow                 =
 cu_diag                  =
 shcu_physics             =
 maxiens                  =
 maxens                   =
 maxens2                  =
 maxens3                  =
 ensdim                   =
 cugd_avedx               =
 nsas_dx_factor           =
 shallowcu_forced_ra      =
 numbins                  =
 thbinsize                =
 rbinsize                 =
 mindeepfreq              =
 minshallowfreq           =
 shcu_aerosols_opt        =
 aercu_opt                =
 aercu_fct                =
 no_src_types_cu          =
 alevsiz_cu               =
 kf_edrates               =
 convtrans_avglen_m       =
 cu_rad_feedback          =
 dust_emis                =
 erosion_dim              =
 isfflx                   =
 ideal_xland              =
 ifsnow                   =
 icloud                   =
 swrad_scat               =
 surface_input_source     =
 pxlsm_smois_init         =
 num_land_cat             =
 num_soil_cat             =
 usemonalb                =
 rdmaxalb                 =
 rdlai2d                  =
 seaice_threshold         =
 sst_update               =
 tmn_update               =
 lagday                   =
 sst_skin                 =
 bucket_mm                =
 bucket_j                 =
 slope_rad                =
 topo_shading             =
 shadlen                  =
 sf_ocean_physics         =
 omdt                     =
 oml_hml0                 =
 oml_gamma                =
 oml_relaxation_time      =
 ocean_levels             =
 isftcflx                 =
 fractional_seaice        =
 seaice_albedo_opt        =
 seaice_albedo_default    =
 seaice_snowdepth_opt     =
 seaice_snowdepth_max     =
 seaice_snowdepth_min     =
 seaice_thickness_opt     =
 seaice_thickness_default =
 prec_acc_dt              =
 traj_opt                 =
 num_traj                 =
 sf_lake_physics          =
 lakedepth_default        =
 lake_min_elev            =
 use_lakedepth            =
 lightning_option         =
 lightning_dt             =
 lightning_start_seconds  =
 flashrate_factor         =
 cellcount_method         =
 cldtop_adjustment        =
 iccg_method              =
 iccg_prescribed_num      =
 iccg_prescribed_den      =
 windfarm_opt             =
 windfarm_ij              =
 hailcast_opt             =
 haildt                   =
 /

 &stoch
 rand_perturb            =
 lengthscale_rand_pert   =
 timescale_rand_pert     =
 gridpt_stddev_rand_pert =
 stddev_cutoff_rand_pert =
 rand_pert_vertstruc     =
 nens                    =
 iseed_rand_pert         =
 sppt                    =
 lengthscale_sppt        =
 timescale_sppt          =
 gridpt_stddev_sppt      =
 stddev_cutoff_sppt      =
 nens                    =
 iseed_sppt              =
 skebs                   =
 tot_backscat_psi        =
 tot_backscat_t          =
 ztau_psi                =
 ztau_t                  =
 rexponent_psi           =
 rexponent_t             =
 kminforc                =
 lminforc                =
 kminforct               =
 lminforct               =
 kmaxforc                =
 lmaxforc                =
 kmaxforct               =
 lmaxforct               =
 zsigma2_eps             =
 zsigma2_eta             =
 skebs_vertstruc         =
 nens                    =
 iseed_skebs             =
 spp                     =
 spp_conv                =
 lengthscale_spp_conv    =
 timescale_spp_conv      =
 gridpt_stddev_spp_conv  =
 stddev_cutoff_spp_conv  =
 iseed_spp_conv          =
 spp_pbl                 =
 lengthscale_spp_pbl     =
 timescale_spp_pbl       =
 gridpt_stddev_spp_pbl   =
 stddev_cutoff_spp_pbl   =
 iseed_spp_pbl           =
 spp_lsm                 =
 lengthscale_spp_lsm     =
 timescale_spp_lsm       =
 gridpt_stddev_spp_lsm   =
 stddev_cutoff_spp_lsm   =
 nens                    =
 /

 &noah_mp
 dveg     =
 opt_crs  =
 opt_sfc  =
 opt_btr  =
 opt_run  =
 opt_frz  =
 opt_inf  =
 opt_rad  =
 opt_alb  =
 opt_snf  =
 opt_tbot =
 opt_stc  =
 opt_gla  =
 opt_rsf  =
 opt_soil =
 opt_pedo =
 opt_crop =
 /

 &fdda
 grid_fdda            =
 gfdda_inname         =
 gfdda_interval_m     =
 gfdda_end_h          =
 io_form_gfdda        =
 fgdt                 =
 if_no_pbl_nudging_t  =
 if_no_pbl_nudging_q  =
 guv                  =
 gt                   =
 gq                   =
 if_ramping           =
 dtramp_min           =
 grid_sfdda           =
 sgfdda_interval_m    =
 sgfdda_end_h         =
 io_form_sgdda        =
 guv_sfc              =
 gt_sfc               =
 gq_sfc               =
 rinblw               =
 fgdtzero             =
 if_no_pbl_nudging_ph =
 if_zfac_uv           =
 k_zfac_uv            =
 dk_zfac_uv           =
 if_zfac_t            =
 k_zfac_t             =
 dk_zfac_t            =
 if_zfac_ph           =
 k_zfac_ph            =
 dk_zfac_ph           =
 if_zfac_q            =
 k_zfac_q             =
 dk_zfac_q            =
 gph                  =
 dk_zfac_uv           =
 dk_zfac_t            =
 dk_zfac_q            =
 ktrop                =
 xwavenum             =
 ywavenum             =
 obs_nudge_opt        =
 max_obs              =
 fdda_end             =
 obs_nudge_wind       =
 obs_coef_wind        =
 obs_nudge_temp       =
 obs_coef_temp        =
 obs_nudge_mois       =
 obs_coef_mois        =
 obs_rinxy            =
 obs_rinsig           =
 obs_twindo           =
 obs_npfi             =
 obs_ionf             =
 obs_idynin           =
 obs_dtramp           =
 obs_prt_max          =
 obs_prt_freq         =
 obs_ipf_in4dob       =
 obs_ipf_errob        =
 obs_ipf_nudob        =
 obs_ipf_init         =
 obs_no_pbl_nudge_uv  =
 obs_no_pbl_nudge_t   =
 obs_no_pbl_nudge_q   =
 obs_nudgezfullr1_uv  =
 obs_nudgezrampr1_uv  =
 obs_nudgezfullr2_uv  =
 obs_nudgezrampr2_uv  =
 obs_nudgezfullr4_uv  =
 obs_nudgezrampr4_uv  =
 obs_nudgezfullr1_t   =
 obs_nudgezrampr1_t   =
 obs_nudgezfullr2_t   =
 obs_nudgezrampr2_t   =
 obs_nudgezfullr4_t   =
 obs_nudgezrampr4_t   =
 obs_nudgezfullr1_q   =
 obs_nudgezrampr1_q   =
 obs_nudgezfullr2_q   =
 obs_nudgezrampr2_q   =
 obs_nudgezfullr4_q   =
 obs_nudgezrampr4_q   =
 obs_nudgefullmin     =
 obs_nudgezrampmin    =
 obs_nudgezmax        =
 obs_sfcfact          =
 obs_sfcfacr          =
 obs_dpsmx            =
 obs_sfc_scheme_horiz =
 obs_sfc_scheme_vert  =
 obs_max_sndng_gap    =
 obs_scl_neg_qv_innov =
 /

 &dynamics
 hybrid_opt              =
 etac                    =
 rk_ord                  =
 diff_opt                =
 km_opt                  =
 diff_6th_opt            =
 diff_6th_factor         =
 diff_6th_thresh         =
 damp_opt                =
 use_theta_m             =
 use_q_diabatic          =
 c_s                     =
 c_k                     =
 zdamp                   =
 dampcoef                =
 w_damping               =
 base_pres               =
 base_temp               =
 base_lapse              =
 iso_temp                =
 base_pres_strat         =
 base_lapse_strat        =
 use_baseparm_fr_nml     =
 use_input_w             =
 khdif                   =
 kvdif                   =
 smdiv                   =
 emdiv                   =
 epssm                   =
 non_hydrostatic         =
 pert_coriolis           =
 top_lid                 =
 mix_full_fields         =
 mix_isotropic           =
 mix_upper_bound         =
 h_mom_adv_order         =
 v_mom_adv_order         =
 h_sca_adv_order         =
 v_sca_adv_order         =
 time_step_sound         =
 moist_adv_opt           =
 scalar_adv_opt          =
 tke_adv_opt             =
 moist_mix2_off          =
 chem_mix2_off           =
 tracer_mix2_off         =
 scalar_mix2_off         =
 tke_mix2_off            =
 moist_mix6_off          =
 chem_mix6_off           =
 tracer_mix6_off         =
 scalar_mix6_off         =
 tke_mix6_off            =
 chem_adv_opt            =
 tracer_adv_opt          =
 momentum_adv_opt        =
 tke_drag_coefficient    =
 tke_heat_flux           =
 fft_filter_lat          =
 coupled_filtering       =
 pos_def                 =
 swap_pole_with_next_j   =
 actual_distance_average =
 gwd_opt                 =
 do_avgflx_em            =
 do_avgflx_cugd          =
 sfs_opt                 =
 m_opt                   =
 tracer_opt              =
 rad_nudge               =
 /

 &bdy_control
 spec_bdy_width    =
 spec_zone         =
 relax_zone        =
 specified         =
 spec_exp          =
 periodic_x        =
 symmetric_xs      =
 symmetric_xe      =
 open_xs           =
 open_xe           =
 periodic_y        =
 symmetric_ys      =
 symmetric_ye      =
 open_ys           =
 open_ye           =
 nested            =
 polar             =
 constant_bc       =
 spec_bdy_final_mu =
 have_bcs_moist    =
 have_bcs_scalar   =
 /

 &namelist_quilt
 nio_tasks_per_group =
 nio_groups          =
 /

 &grib2
 background_proc_id =
 forecast_proc_id   =
 production_status  =
 compression        =
 /

 &dfi_control
 dfi_opt                  =
 dfi_nfilter              =
 dfi_write_filtered_input =
 dfi_write_dfi_history    =
 dfi_cutoff_seconds       =
 dfi_time_dim             =
 dfi_bckstop_year         =
 dfi_bckstop_month        =
 dfi_bckstop_day          =
 dfi_bckstop_hour         =
 dfi_bckstop_minute       =
 dfi_bckstop_second       =
 dfi_fwdstop_year         =
 dfi_fwdstop_month        =
 dfi_fwdstop_day          =
 dfi_fwdstop_hour         =
 dfi_fwdstop_minute       =
 dfi_fwdstop_second       =
 dfi_radar                =
 /

 &scm
 scm_force                 =
 scm_force_dx              =
 num_force_layers          =
 scm_lu_index              =
 scm_isltyp                =
 scm_vegfra                =
 scm_canwat                =
 scm_lat                   =
 scm_lon                   =
 scm_th_adv                =
 scm_wind_adv              =
 scm_qv_adv                =
 scm_vert_adv              =
 scm_ql_adv                =
 num_force_soil_layers     =
 scm_soilt_force           =
 scm_soilq_force           =
 scm_force_th_largescale   =
 scm_force_qv_largescale   =
 scm_force_wind_largescale =
 /

 &tc
 insert_bogus_storm     =
 remove_storm           =
 num_storm              =
 latc_loc               =
 lonc_loc               =
 vmax_meters_per_second =
 rmax                   =
 vmax_ratio             =
 rankine_lid            =
 /

 &diags
 p_lev_diags      =
 num_press_levels =
 press_levels     =
 use_tot_or_hyd_p =
 z_lev_diags      =
 num_z_levels     =
 num_z_levels     =
 p_lev_missing    =
 /

 &afwa
 afwa_diag_opt       =
 afwa_ptype_opt      =
 afwa_vil_opt        =
 afwa_radar_opt      =
 afwa_severe_opt     =
 afwa_icing_opt      =
 afwa_vis_opt        =
 afwa_cloud_opt      =
 afwa_therm_opt      =
 afwa_turb_opt       =
 afwa_buoy_opt       =
 afwa_ptype_ccn_tmp  =
 afwa_ptype_tot_melt =
 progn               =
 /

 &ideal
 ideal_case =
 /
